Texas2000_June2016.m
% Case saved by PowerWorld Simulator, version 20 Beta, build date June 7, 2016
function mpc = Texas2000_June2016
mpc.version = '2';
mpc.baseMVA =  100.00;

%% bus data 
mpc.bus = [
      1 3      0.00     0.00      0.00     0.00    1 1.0400000     0.00000   13.80   1   1.100   0.900     0.00     0.00 0  0
      2 1    249.85    71.21      0.00     0.00    1 0.9810380   -16.83769  115.00   1   1.100   0.900     0.00     0.00 0  0
      3 1    153.92    43.87      0.00     0.00    1 0.9941637   -14.84085  115.00   1   1.100   0.900     0.00     0.00 0  0
      4 1    183.21    52.22      0.00     0.00    1 0.9862218   -16.26127  115.00   1   1.100   0.900     0.00     0.00 0  0
      5 1    125.84    35.87      0.00     0.00    1 0.9830365   -16.76437  115.00   1   1.100   0.900     0.00     0.00 0  0
      6 1     21.42     6.10      0.00     0.00    1 0.9865580   -14.21715  115.00   1   1.100   0.900     0.00     0.00 0  0
      7 1    169.32    48.26      0.00     0.00    1 0.9815147   -16.80638  115.00   1   1.100   0.900     0.00     0.00 0  0
      8 1     73.98    21.08      0.00     0.00    1 0.9884619   -15.50919  115.00   1   1.100   0.900     0.00     0.00 0  0
      9 1    179.80    51.24      0.00     0.00    1 0.9874186   -16.13250  115.00   1   1.100   0.900     0.00     0.00 0  0
     10 1     40.65    11.59      0.00     0.00    2 1.0075890    -8.97848  115.00   1   1.100   0.900     0.00     0.00 0  0
     11 1     14.93     4.26      0.00     0.00    2 0.9990824   -10.54674  115.00   1   1.100   0.900     0.00     0.00 0  0
     12 1     54.96    15.66      0.00     0.00    1 0.9789560   -17.72651  115.00   1   1.100   0.900     0.00     0.00 0  0
     13 1    234.94    66.96      0.00     0.00    1 0.9890751   -15.68798  115.00   1   1.100   0.900     0.00     0.00 0  0
     14 1    202.88    57.82      0.00     0.00    1 0.9869647   -16.02950  115.00   1   1.100   0.900     0.00     0.00 0  0
     15 1    102.93    29.34      0.00     0.00    1 0.9778729   -17.34190  115.00   1   1.100   0.900     0.00     0.00 0  0
     16 1     68.22    19.44      0.00     0.00    1 0.9788066   -16.12437  115.00   1   1.100   0.900     0.00     0.00 0  0
     17 1    177.28    50.52      0.00     0.00    1 0.9798428   -16.78816  115.00   1   1.100   0.900     0.00     0.00 0  0
     18 1    115.92    33.04      0.00     0.00    1 0.9822281   -15.46292  115.00   1   1.100   0.900     0.00     0.00 0  0
     19 1     67.77    19.32      0.00     0.00    1 0.9881359   -15.08336  115.00   1   1.100   0.900     0.00     0.00 0  0
     20 1     26.89     7.66      0.00     0.00    1 0.9864655   -15.43009  115.00   1   1.100   0.900     0.00     0.00 0  0
     21 1    144.81    41.27      0.00     0.00    1 0.9816052   -16.62122  115.00   1   1.100   0.900     0.00     0.00 0  0
     22 1    167.18    47.65      0.00     0.00    1 0.9791480   -16.91995  115.00   1   1.100   0.900     0.00     0.00 0  0
     23 1    141.62    40.36      0.00     0.00    1 0.9812883   -16.64882  115.00   1   1.100   0.900     0.00     0.00 0  0
     24 1    151.12    43.07      0.00     0.00    1 0.9861585   -16.16158  115.00   1   1.100   0.900     0.00     0.00 0  0
     25 1    123.30    35.14      0.00     0.00    1 0.9889418   -15.84605  115.00   1   1.100   0.900     0.00     0.00 0  0
     26 1    100.05    28.51      0.00     0.00    1 0.9823234   -15.55107  115.00   1   1.100   0.900     0.00     0.00 0  0
     27 1     95.77    27.29      0.00     0.00    1 0.9902790   -14.71169  115.00   1   1.100   0.900     0.00     0.00 0  0
     28 1    216.95    61.83      0.00     0.00    1 0.9841131   -15.50702  115.00   1   1.100   0.900     0.00     0.00 0  0
     29 1     12.32     3.51      0.00     0.00    1 0.9820823   -15.02362  115.00   1   1.100   0.900     0.00     0.00 0  0
     30 1    180.10    51.33      0.00     0.00    1 0.9812228   -16.96832  115.00   1   1.100   0.900     0.00     0.00 0  0
     31 1      5.54     1.58      0.00     0.00    2 0.9842569   -14.64270  115.00   1   1.100   0.900     0.00     0.00 0  0
     32 1    350.93   100.02      0.00     0.00    1 0.9873218   -15.46406  115.00   1   1.100   0.900     0.00     0.00 0  0
     33 1     26.20     7.47      0.00     0.00    1 0.9764935   -18.08485  115.00   1   1.100   0.900     0.00     0.00 0  0
     34 1     85.16    24.27      0.00     0.00    1 0.9701440   -17.62445  115.00   1   1.100   0.900     0.00     0.00 0  0
     35 1     83.15    23.70      0.00     0.00    1 0.9991554   -13.56332  115.00   1   1.100   0.900     0.00     0.00 0  0
     36 1    182.18    51.92      0.00     0.00    1 0.9804313   -15.58157  115.00   1   1.100   0.900     0.00     0.00 0  0
     37 1     87.98    25.07      0.00     0.00    1 0.9925952   -14.16232  115.00   1   1.100   0.900     0.00     0.00 0  0
     38 1    108.78    31.00      0.00     0.00    1 0.9892443   -15.57890  115.00   1   1.100   0.900     0.00     0.00 0  0
     39 1     81.08    23.11      0.00     0.00    1 0.9858909   -16.20694  115.00   1   1.100   0.900     0.00     0.00 0  0
     40 1     13.71     3.91      0.00     0.00    2 1.0044513    -9.75251  115.00   1   1.100   0.900     0.00     0.00 0  0
     41 1     86.12    24.55      0.00     0.00    1 0.9754342   -18.36422  115.00   1   1.100   0.900     0.00     0.00 0  0
     42 1     25.82     7.36      0.00     0.00    1 0.9912574   -14.67993  115.00   1   1.100   0.900     0.00     0.00 0  0
     43 1    190.54    54.30      0.00     0.00    1 0.9838980   -16.51476  115.00   1   1.100   0.900     0.00     0.00 0  0
     44 1     68.61    19.55      0.00     0.00    1 0.9879078   -15.30833  115.00   1   1.100   0.900     0.00     0.00 0  0
     45 1     60.24    17.17      0.00     0.00    1 0.9859798   -16.51198  115.00   1   1.100   0.900     0.00     0.00 0  0
     46 1     44.09    12.57      0.00     0.00    2 0.9969671   -10.90313  115.00   1   1.100   0.900     0.00     0.00 0  0
     47 1     42.45    12.10      0.00     0.00    2 0.9941755   -11.72886  115.00   1   1.100   0.900     0.00     0.00 0  0
     48 1     50.17    14.30      0.00     0.00    1 0.9944474   -14.94730  115.00   1   1.100   0.900     0.00     0.00 0  0
     49 1    117.49    33.48      0.00     0.00    1 0.9938765   -14.39399  115.00   1   1.100   0.900     0.00     0.00 0  0
     50 1      1.57     0.45      0.00     0.00    1 0.9975319   -13.31748  115.00   1   1.100   0.900     0.00     0.00 0  0
     51 1      3.22     0.92      0.00     0.00    1 1.0199974   -10.34218  115.00   1   1.100   0.900     0.00     0.00 0  0
     52 1     20.08     5.72      0.00     0.00    3 1.0026638   -15.53384  115.00   1   1.100   0.900     0.00     0.00 0  0
     53 1    110.61    31.52      0.00     0.00    1 0.9801326   -16.03078  115.00   1   1.100   0.900     0.00     0.00 0  0
     54 1      0.73     0.21      0.00     0.00    1 1.0079069   -11.99345  115.00   1   1.100   0.900     0.00     0.00 0  0
     55 1      8.92     2.54      0.00     0.00    1 1.0104991   -11.15408  115.00   1   1.100   0.900     0.00     0.00 0  0
     56 1     68.58    19.54      0.00     0.00    1 1.0202155    -9.91114  115.00   1   1.100   0.900     0.00     0.00 0  0
     57 1     11.36     3.24      0.00     0.00    1 0.9939985   -16.40217  115.00   1   1.100   0.900     0.00     0.00 0  0
     58 1    119.15    33.96      0.00    80.00    1 1.0087292   -17.00657  115.00   1   1.100   0.900     0.00     0.00 0  0
     59 1    165.40    47.14      0.00     0.00    1 0.9791117   -16.21413  115.00   1   1.100   0.900     0.00     0.00 0  0
     60 1      5.82     1.66      0.00     0.00    3 1.0080069   -15.02407  115.00   1   1.100   0.900     0.00     0.00 0  0
     61 1     64.85    18.48      0.00     0.00    1 0.9957129   -13.48303  115.00   1   1.100   0.900     0.00     0.00 0  0
     62 1      6.95     1.98      0.00     0.00    3 0.9986441   -15.27765  115.00   1   1.100   0.900     0.00     0.00 0  0
     63 1     16.31     4.65      0.00     0.00    1 0.9928878   -15.01625  115.00   1   1.100   0.900     0.00     0.00 0  0
     64 1     81.41    23.20      0.00    70.00    1 1.0029367   -17.09779  115.00   1   1.100   0.900     0.00     0.00 0  0
     65 1      2.49     0.71      0.00     0.00    3 1.0108307   -14.58460  115.00   1   1.100   0.900     0.00     0.00 0  0
     66 1      0.72     0.20      0.00     0.00    1 0.9907030   -15.84122  115.00   1   1.100   0.900     0.00     0.00 0  0
     67 1     49.43    14.09      0.00    50.00    1 0.9832385   -17.18197  115.00   1   1.100   0.900     0.00     0.00 0  0
     68 1     14.41     4.11      0.00     0.00    1 0.9899703   -15.47734  115.00   1   1.100   0.900     0.00     0.00 0  0
     69 1     10.87     3.10      0.00     0.00    3 1.0123043   -14.04344  115.00   1   1.100   0.900     0.00     0.00 0  0
     70 1     22.74     6.48      0.00     0.00    1 0.9860340   -16.05910  115.00   1   1.100   0.900     0.00     0.00 0  0
     71 1     46.27    13.19      0.00     0.00    1 0.9778052   -16.74610  115.00   1   1.100   0.900     0.00     0.00 0  0
     72 1     35.64    10.16      0.00     0.00    1 0.9958297   -14.27176  115.00   1   1.100   0.900     0.00     0.00 0  0
     73 1      8.02     2.29      0.00     0.00    1 1.0004425   -13.93170  115.00   1   1.100   0.900     0.00     0.00 0  0
     74 1     43.86    12.50      0.00     0.00    1 0.9824110   -16.72346  115.00   1   1.100   0.900     0.00     0.00 0  0
     75 1     16.09     4.59      0.00     0.00    1 0.9889100   -16.14716  115.00   1   1.100   0.900     0.00     0.00 0  0
     76 1      9.13     2.60      0.00     0.00    3 1.0272910   -12.57900  115.00   1   1.100   0.900     0.00     0.00 0  0
     77 1    136.67    38.95      0.00     0.00    1 0.9751712   -17.22479  115.00   1   1.100   0.900     0.00     0.00 0  0
     78 1    143.17    40.80      0.00     0.00    1 0.9759294   -17.24515  115.00   1   1.100   0.900     0.00     0.00 0  0
     79 1     11.23     3.20      0.00     0.00    1 1.0043691   -13.51695  115.00   1   1.100   0.900     0.00     0.00 0  0
     80 1      1.47     0.42      0.00     0.00    1 1.0051555   -12.25943  115.00   1   1.100   0.900     0.00     0.00 0  0
     81 1     87.86    25.04      0.00     0.00    1 0.9742420   -16.15199  115.00   1   1.100   0.900     0.00     0.00 0  0
     82 1      6.29     1.79      0.00     0.00    1 1.0027318   -12.61202  115.00   1   1.100   0.900     0.00     0.00 0  0
     83 1     35.54    10.13      0.00     0.00    1 1.0087432   -14.34145  115.00   1   1.100   0.900     0.00     0.00 0  0
     84 1     10.85     3.09      0.00     0.00    1 1.0032778   -14.19221  115.00   1   1.100   0.900     0.00     0.00 0  0
     85 1     44.71    12.74      0.00     0.00    1 0.9903495   -15.78196  115.00   1   1.100   0.900     0.00     0.00 0  0
     86 1     57.60    16.41      0.00     0.00    1 0.9989780   -15.19189  115.00   1   1.100   0.900     0.00     0.00 0  0
     87 1     15.03     4.28      0.00     0.00    1 1.0045501   -12.68337  115.00   1   1.100   0.900     0.00     0.00 0  0
     88 1      3.57     1.02      0.00     0.00    3 1.0255518   -12.83921  115.00   1   1.100   0.900     0.00     0.00 0  0
     89 1      1.64     0.47      0.00     0.00    1 0.9962964   -15.72356  115.00   1   1.100   0.900     0.00     0.00 0  0
     90 1     92.55    26.38      0.00     0.00    1 0.9995795   -14.71639  115.00   1   1.100   0.900     0.00     0.00 0  0
     91 1      7.48     2.13      0.00     0.00    1 0.9906770   -14.54052  115.00   1   1.100   0.900     0.00     0.00 0  0
     92 1     20.56     5.86      0.00     0.00    1 0.9993756   -14.29866  115.00   1   1.100   0.900     0.00     0.00 0  0
     93 1     22.88     6.52      0.00     0.00    3 1.0037069   -15.72885  115.00   1   1.100   0.900     0.00     0.00 0  0
     94 1     10.61     3.02      0.00     0.00    1 0.9946643   -13.60762  115.00   1   1.100   0.900     0.00     0.00 0  0
     95 1    101.12    28.82      0.00     0.00    1 0.9731929   -17.03240  115.00   1   1.100   0.900     0.00     0.00 0  0
     96 1     63.16    18.00      0.00    60.00    1 1.0019223   -17.96940  115.00   1   1.100   0.900     0.00     0.00 0  0
     97 1     12.48     3.56      0.00     0.00    1 1.0018158   -17.45843  115.00   1   1.100   0.900     0.00     0.00 0  0
     98 1     54.62    15.57      0.00    50.00    1 0.9934537   -16.28861  115.00   1   1.100   0.900     0.00     0.00 0  0
     99 1    183.81    52.39      0.00     0.00    1 0.9796815   -16.56543  115.00   1   1.100   0.900     0.00     0.00 0  0
    100 1    111.87    31.88      0.00     0.00    1 0.9861943   -15.49003  115.00   1   1.100   0.900     0.00     0.00 0  0
    101 1    275.83    78.61      0.00     0.00    1 0.9797671   -16.52004  115.00   1   1.100   0.900     0.00     0.00 0  0
    102 1     75.16    21.42      0.00     0.00    1 0.9814573   -16.28907  115.00   1   1.100   0.900     0.00     0.00 0  0
    103 1     87.95    25.06      0.00     0.00    1 0.9758878   -17.08850  115.00   1   1.100   0.900     0.00     0.00 0  0
    104 1    178.31    50.82      0.00     0.00    1 0.9791293   -16.19204  115.00   1   1.100   0.900     0.00     0.00 0  0
    105 1     61.80    17.61      0.00     0.00    1 0.9870315   -15.38770  115.00   1   1.100   0.900     0.00     0.00 0  0
    106 1    120.46    34.33      0.00     0.00    1 0.9781459   -17.13981  115.00   1   1.100   0.900     0.00     0.00 0  0
    107 1    195.81    55.80      0.00     0.00    1 0.9780864   -16.76833  115.00   1   1.100   0.900     0.00     0.00 0  0
    108 1    215.04    61.29      0.00     0.00    1 0.9762717   -17.23916  115.00   1   1.100   0.900     0.00     0.00 0  0
    109 1    179.08    51.04      0.00     0.00    1 0.9831588   -16.58328  115.00   1   1.100   0.900     0.00     0.00 0  0
    110 1    117.20    33.40      0.00     0.00    1 0.9827497   -16.18181  115.00   1   1.100   0.900     0.00     0.00 0  0
    111 1    134.14    38.23      0.00     0.00    1 0.9757345   -17.11272  115.00   1   1.100   0.900     0.00     0.00 0  0
    112 1    299.69    85.41      0.00     0.00    1 0.9779558   -16.94106  115.00   1   1.100   0.900     0.00     0.00 0  0
    113 1    111.61    31.81      0.00     0.00    1 0.9789270   -16.79583  115.00   1   1.100   0.900     0.00     0.00 0  0
    114 1     65.98    18.80      0.00    60.00    1 0.9823700   -17.56010  115.00   1   1.100   0.900     0.00     0.00 0  0
    115 1    259.64    74.00      0.00     0.00    1 0.9842111   -16.53168  115.00   1   1.100   0.900     0.00     0.00 0  0
    116 1     45.22    12.89      0.00     0.00    1 0.9911010   -13.44938  115.00   1   1.100   0.900     0.00     0.00 0  0
    117 1     38.81    11.06      0.00    30.00    1 1.0024596   -14.01213  115.00   1   1.100   0.900     0.00     0.00 0  0
    118 1     34.42     9.81      0.00     0.00    1 0.9915324   -14.58648  115.00   1   1.100   0.900     0.00     0.00 0  0
    119 1     28.84     8.22      0.00     0.00    1 1.0017458   -12.03116  115.00   1   1.100   0.900     0.00     0.00 0  0
    120 1      2.08     0.59      0.00     0.00    2 0.9976916   -11.87940  115.00   1   1.100   0.900     0.00     0.00 0  0
    121 1      1.45     0.41      0.00     0.00    2 0.9969327   -12.44579  115.00   1   1.100   0.900     0.00     0.00 0  0
    122 1      0.57     0.16      0.00     0.00    2 0.9923644   -12.18868  115.00   1   1.100   0.900     0.00     0.00 0  0
    123 1      5.83     1.66      0.00     0.00    2 0.9961841   -11.32019  115.00   1   1.100   0.900     0.00     0.00 0  0
    124 1      0.35     0.10      0.00     0.00    1 1.0177987    -6.94662  115.00   1   1.100   0.900     0.00     0.00 0  0
    125 1      5.38     1.53      0.00     0.00    2 0.9969646   -11.57959  115.00   1   1.100   0.900     0.00     0.00 0  0
    126 1      4.56     1.30      0.00     0.00    2 0.9984808    -9.32010  115.00   1   1.100   0.900     0.00     0.00 0  0
    127 1     26.78     7.63      0.00     0.00    2 0.9903429   -11.54732  115.00   1   1.100   0.900     0.00     0.00 0  0
    128 1      1.68     0.48      0.00     0.00    3 1.0091016   -10.32164  115.00   1   1.100   0.900     0.00     0.00 0  0
    129 1      1.86     0.53      0.00     0.00    2 1.0043748    -9.81160  115.00   1   1.100   0.900     0.00     0.00 0  0
    130 1      7.03     2.00      0.00     0.00    1 1.0010413   -11.81233  115.00   1   1.100   0.900     0.00     0.00 0  0
    131 1      7.27     2.07      0.00     0.00    1 1.0031020   -11.93309  115.00   1   1.100   0.900     0.00     0.00 0  0
    132 1      8.04     2.29      0.00     0.00    1 1.0167440    -9.71979  115.00   1   1.100   0.900     0.00     0.00 0  0
    133 1      9.85     2.81      0.00     0.00    2 0.9947366   -12.74960  115.00   1   1.100   0.900     0.00     0.00 0  0
    134 1     24.59     7.01      0.00     0.00    1 1.0077254    -8.88154  115.00   1   1.100   0.900     0.00     0.00 0  0
    135 1      3.21     0.91      0.00     0.00    3 1.0129703   -11.57570  115.00   1   1.100   0.900     0.00     0.00 0  0
    136 1      8.45     2.41      0.00     0.00    1 1.0257456    -5.55910  115.00   1   1.100   0.900     0.00     0.00 0  0
    137 1      4.33     1.23      0.00     0.00    3 1.0095445    -9.85986  115.00   1   1.100   0.900     0.00     0.00 0  0
    138 1      2.20     0.63      0.00     0.00    2 1.0076782    -8.16826  115.00   1   1.100   0.900     0.00     0.00 0  0
    139 1      3.49     0.99      0.00     0.00    2 0.9958573   -11.99622  115.00   1   1.100   0.900     0.00     0.00 0  0
    140 1      1.68     0.48      0.00     0.00    3 1.0054512    -9.37673  115.00   1   1.100   0.900     0.00     0.00 0  0
    141 1      1.81     0.51      0.00     0.00    2 0.9942400   -11.09285  115.00   1   1.100   0.900     0.00     0.00 0  0
    142 1      1.61     0.46      0.00     0.00    2 0.9944953   -12.03381  115.00   1   1.100   0.900     0.00     0.00 0  0
    143 1      9.92     2.83      0.00     0.00    3 0.9940856   -15.37867  115.00   1   1.100   0.900     0.00     0.00 0  0
    144 1     21.59     6.15      0.00     0.00    1 0.9922519   -15.38429  115.00   1   1.100   0.900     0.00     0.00 0  0
    145 1      5.91     1.68      0.00     0.00    2 1.0011283   -10.26169  115.00   1   1.100   0.900     0.00     0.00 0  0
    146 1      2.01     0.57      0.00     0.00    2 0.9926292   -11.49726  115.00   1   1.100   0.900     0.00     0.00 0  0
    147 1      1.60     0.46      0.00     0.00    1 1.0160430    -7.32750  115.00   1   1.100   0.900     0.00     0.00 0  0
    148 1      2.20     0.63      0.00     0.00    2 1.0093942    -9.02469  115.00   1   1.100   0.900     0.00     0.00 0  0
    149 1      0.81     0.23      0.00     0.00    1 1.0157235    -7.02981  115.00   1   1.100   0.900     0.00     0.00 0  0
    150 1      1.89     0.54      0.00     0.00    3 1.0155696   -13.20394  115.00   1   1.100   0.900     0.00     0.00 0  0
    151 1      7.60     2.17      0.00     0.00    2 0.9914882   -12.59290  115.00   1   1.100   0.900     0.00     0.00 0  0
    152 1      7.93     2.26      0.00     0.00    1 0.9961985   -13.95241  115.00   1   1.100   0.900     0.00     0.00 0  0
    153 1     13.89     3.96      0.00     0.00    1 0.9943582   -12.98329  115.00   1   1.100   0.900     0.00     0.00 0  0
    154 1     44.21    12.60      0.00     0.00    3 0.9839204   -11.24006  115.00   1   1.100   0.900     0.00     0.00 0  0
    155 1     10.19     2.90      0.00     0.00    3 0.9945424   -10.64201  115.00   1   1.100   0.900     0.00     0.00 0  0
    156 1      8.04     2.29      0.00     0.00    2 0.9937384   -12.81936  115.00   1   1.100   0.900     0.00     0.00 0  0
    157 1     43.85    12.50      0.00     0.00    2 0.9991969   -11.01308  115.00   1   1.100   0.900     0.00     0.00 0  0
    158 1     21.09     6.01      0.00     0.00    2 1.0005005   -10.82496  115.00   1   1.100   0.900     0.00     0.00 0  0
    159 1      1.65     0.47      0.00     0.00    2 1.0087611    -8.12429  115.00   1   1.100   0.900     0.00     0.00 0  0
    160 1      0.90     0.26      0.00     0.00    1 1.0154485    -7.66829  115.00   1   1.100   0.900     0.00     0.00 0  0
    161 1      0.54     0.15      0.00     0.00    2 1.0065605    -9.19973  115.00   1   1.100   0.900     0.00     0.00 0  0
    162 1      2.23     0.63      0.00     0.00    3 1.0132765   -12.03811  115.00   1   1.100   0.900     0.00     0.00 0  0
    163 1      5.54     1.58      0.00     0.00    3 0.9993448   -14.86095  115.00   1   1.100   0.900     0.00     0.00 0  0
    164 1      7.16     2.04      0.00     0.00    2 1.0007603   -11.01782  115.00   1   1.100   0.900     0.00     0.00 0  0
    165 1     36.28    10.34      0.00    40.00    1 1.0036065   -16.24839  115.00   1   1.100   0.900     0.00     0.00 0  0
    166 1      0.24     0.07      0.00     0.00    2 0.9928599   -12.33278  115.00   1   1.100   0.900     0.00     0.00 0  0
    167 1      2.42     0.69      0.00     0.00    2 0.9939679   -11.91785  115.00   1   1.100   0.900     0.00     0.00 0  0
    168 1      1.82     0.52      0.00     0.00    2 1.0133269    -7.83966  115.00   1   1.100   0.900     0.00     0.00 0  0
    169 1      1.46     0.42      0.00     0.00    3 1.0013243   -10.08840  115.00   1   1.100   0.900     0.00     0.00 0  0
    170 1      3.44     0.98      0.00     0.00    2 0.9951133   -11.72918  115.00   1   1.100   0.900     0.00     0.00 0  0
    171 1      2.57     0.73      0.00     0.00    3 1.0132606   -13.27325  115.00   1   1.100   0.900     0.00     0.00 0  0
    172 1      0.62     0.18      0.00     0.00    3 1.0099539    -8.32123  115.00   1   1.100   0.900     0.00     0.00 0  0
    173 1     38.10    10.86      0.00     0.00    3 1.0005138   -10.17908  115.00   1   1.100   0.900     0.00     0.00 0  0
    174 1      4.36     1.24      0.00     0.00    2 0.9980874   -11.62757  115.00   1   1.100   0.900     0.00     0.00 0  0
    175 1      2.41     0.69      0.00     0.00    3 0.9930626   -10.03112  115.00   1   1.100   0.900     0.00     0.00 0  0
    176 1      2.16     0.61      0.00     0.00    2 0.9938883   -11.43264  115.00   1   1.100   0.900     0.00     0.00 0  0
    177 1      1.85     0.53      0.00     0.00    2 0.9959826   -12.25061  115.00   1   1.100   0.900     0.00     0.00 0  0
    178 1      4.11     1.17      0.00     0.00    2 0.9929975   -13.63488  115.00   1   1.100   0.900     0.00     0.00 0  0
    179 1      8.92     2.54      0.00     0.00    2 0.9938441   -12.95967  115.00   1   1.100   0.900     0.00     0.00 0  0
    180 1      0.96     0.27      0.00     0.00    2 0.9974530   -10.69801  115.00   1   1.100   0.900     0.00     0.00 0  0
    181 1      0.95     0.27      0.00     0.00    3 0.9908807   -10.90888  115.00   1   1.100   0.900     0.00     0.00 0  0
    182 1     13.19     3.76      0.00     0.00    2 0.9914912   -13.08985  115.00   1   1.100   0.900     0.00     0.00 0  0
    183 1      8.17     2.33      0.00     0.00    1 1.0053256   -10.48624  115.00   1   1.100   0.900     0.00     0.00 0  0
    184 1      5.23     1.49      0.00     0.00    3 1.0111044   -11.44461  115.00   1   1.100   0.900     0.00     0.00 0  0
    185 1      1.50     0.43      0.00     0.00    2 0.9946277   -12.80412  115.00   1   1.100   0.900     0.00     0.00 0  0
    186 1      3.36     0.96      0.00     0.00    2 0.9947161   -12.79521  115.00   1   1.100   0.900     0.00     0.00 0  0
    187 1      2.56     0.73      0.00     0.00    3 1.0015608   -13.31783  115.00   1   1.100   0.900     0.00     0.00 0  0
    188 1      4.45     1.27      0.00     0.00    3 1.0030649   -13.37251  115.00   1   1.100   0.900     0.00     0.00 0  0
    189 1     26.00     7.41      0.00     0.00    3 1.0134740   -13.91955  115.00   1   1.100   0.900     0.00     0.00 0  0
    190 1     19.40     5.53      0.00     0.00    3 1.0160494   -13.20626  115.00   1   1.100   0.900     0.00     0.00 0  0
    191 1      1.60     0.45      0.00     0.00    3 1.0204584   -12.77877  115.00   1   1.100   0.900     0.00     0.00 0  0
    192 1      0.95     0.27      0.00     0.00    3 1.0250382   -12.84260  115.00   1   1.100   0.900     0.00     0.00 0  0
    193 1      4.00     1.14      0.00     0.00    3 1.0319560   -11.57451  115.00   1   1.100   0.900     0.00     0.00 0  0
    194 1     12.53     3.57      0.00     0.00    3 1.0091555   -14.46418  115.00   1   1.100   0.900     0.00     0.00 0  0
    195 1     20.29     5.78      0.00    30.00    3 1.0216803   -13.75825  115.00   1   1.100   0.900     0.00     0.00 0  0
    196 1      6.59     1.88      0.00     0.00    3 1.0153234   -13.80860  115.00   1   1.100   0.900     0.00     0.00 0  0
    197 1     96.00    27.36      0.00     0.00    3 1.0130396   -13.85736  115.00   1   1.100   0.900     0.00     0.00 0  0
    198 1     58.07    16.55      0.00     0.00    3 1.0127873   -13.95630  115.00   1   1.100   0.900     0.00     0.00 0  0
    199 1     13.57     3.87      0.00     0.00    3 1.0205413   -13.30175  115.00   1   1.100   0.900     0.00     0.00 0  0
    200 1      3.39     0.97      0.00     0.00    3 1.0045844   -14.87486  115.00   1   1.100   0.900     0.00     0.00 0  0
...
];

%% generator data 
mpc.gen = [
      1   2150.61    373.72    894.24   -199.26  1.0400   2673.00 1   2430.00    729.00    729.00   2430.00   -199.26    894.24   -199.26    894.24 0 0 0 0  24.3000 0 0 0 0
   1502    161.77     46.52    170.58    -19.49  1.0400    335.06 1    304.60     91.38     91.38    304.60    -19.49    170.58    -19.49    170.58 0 0 0 0   3.0460 0 0 0 0
   1503    125.34     36.04    132.16    -15.10  1.0400    259.60 1    236.00     70.80     70.80    236.00    -15.10    132.16    -15.10    132.16 0 0 0 0   2.3600 0 0 0 0
   1504     93.68     26.94     98.78    -11.29  1.0400    194.04 1    176.40     52.92     52.92    176.40    -11.29     98.78    -11.29     98.78 0 0 0 0   1.7640 0 0 0 0
   1505    202.19     58.14    213.19    -24.36  1.0400    418.77 1    380.70    114.21    114.21    380.70    -24.36    213.19    -24.36    213.19 0 0 0 0   3.8070 0 0 0 0
   1506    447.44    124.10    392.60   -102.79  1.0400    926.75 1    842.50    252.75    252.75    842.50   -102.79    392.60   -102.79    392.60 0 0 0 0   8.4250 0 0 0 0
   1507     94.16     27.08     99.29    -11.35  1.0400    195.03 1    177.30     53.19     53.19    177.30    -11.35     99.29    -11.35     99.29 0 0 0 0   1.7730 0 0 0 0
   1508    202.77     58.31    213.81    -24.44  1.0400    419.98 1    381.80    114.54    114.54    381.80    -24.44    213.81    -24.44    213.81 0 0 0 0   3.8180 0 0 0 0
   1509      0.58      0.00      0.00      0.00  1.0100      1.65 1      1.50      0.45      0.45      1.50      0.00      0.00      0.00      0.00 0 0 0 0   0.0150 0 0 0 0
   1510     49.23      8.09     51.91     -5.93  1.0400    101.97 1     92.70     27.81     27.81     92.70     -5.93     51.91     -5.93     51.91 0 0 0 0   0.9270 0 0 0 0
   1511    360.13     59.17    379.74    -43.40  1.0400    745.91 1    678.10    203.43    203.43    678.10    -43.40    379.74    -43.40    379.74 0 0 0 0   6.7810 0 0 0 0
   1512    138.08     22.69    145.60    -16.64  1.0400    286.00 1    260.00     78.00     78.00    260.00    -16.64    145.60    -16.64    145.60 0 0 0 0   2.6000 0 0 0 0
   1513    264.43     43.45    278.82    -31.87  1.0400    547.69 1    497.90    149.37    149.37    497.90    -31.87    278.82    -31.87    278.82 0 0 0 0   4.9790 0 0 0 0
   1514      7.87      3.05     12.32     -1.41  1.0400     24.20 1     22.00      6.60      6.60     22.00     -1.41     12.32     -1.41     12.32 0 0 0 0   0.2200 0 0 0 0
   1515     17.92      6.95     28.06     -3.21  1.0400     55.11 1     50.10     15.03     15.03     50.10     -3.21     28.06     -3.21     28.06 0 0 0 0   0.5010 0 0 0 0
   1516     72.70     27.16     94.69    -24.79  1.0400    223.52 1    203.20     60.96     60.96    203.20    -24.79     94.69    -24.79     94.69 0 0 0 0   2.0320 0 0 0 0
   1517      8.78      0.00      0.00      0.00  1.0400     26.40 1     24.00      7.20      7.20     24.00      0.00      0.00      0.00      0.00 0 0 0 0   0.2400 0 0 0 0
   1518    157.96     19.42    241.92    -27.65  1.0400    475.20 1    432.00    129.60    129.60    432.00    -27.65    241.92    -27.65    241.92 0 0 0 0   4.3200 0 0 0 0
   1519    216.94     26.67    332.25    -37.97  1.0400    652.63 1    593.30    177.99    177.99    593.30    -37.97    332.25    -37.97    332.25 0 0 0 0   5.9330 0 0 0 0
   1520    267.00     32.83    408.91    -46.73  1.0400    803.22 1    730.20    219.06    219.06    730.20    -46.73    408.91    -46.73    408.91 0 0 0 0   7.3020 0 0 0 0
   1521     13.37     -4.94      7.31     -4.94  1.0100     37.73 1     34.30     10.29     10.29     34.30     -4.94      7.31     -4.94      7.31 0 0 0 0   0.3430 0 0 0 0
   1522     47.51    -17.55     25.96    -17.55  1.0100    134.09 1    121.90     36.57     36.57    121.90    -17.55     25.96    -17.55     25.96 0 0 0 0   1.2190 0 0 0 0
   1523     22.92     -8.47     12.52     -8.47  1.0100     64.68 1     58.80     17.64     17.64     58.80     -8.47     12.52     -8.47     12.52 0 0 0 0   0.5880 0 0 0 0
   1524     55.54    -20.52     30.35    -20.52  1.0100    156.75 1    142.50     42.75     42.75    142.50    -20.52     30.35    -20.52     30.35 0 0 0 0   1.4250 0 0 0 0
   1525    485.73    129.83    512.18    -58.53  1.0400   1006.06 1    914.60    274.38    274.38    914.60    -58.53    512.18    -58.53    512.18 0 0 0 0   9.1460 0 0 0 0
   1526    812.57    209.51    712.98   -186.66  1.0400   1683.00 1   1530.00    459.00    459.00   1530.00   -186.66    712.98   -186.66    712.98 0 0 0 0  15.3000 0 0 0 0
   1527    284.40     76.02    299.88    -34.27  1.0400    589.05 1    535.50    160.65    160.65    535.50    -34.27    299.88    -34.27    299.88 0 0 0 0   5.3550 0 0 0 0
   1528     13.65      3.65     14.39     -1.64  1.0400     28.27 1     25.70      7.71      7.71     25.70     -1.64     14.39     -1.64     14.39 0 0 0 0   0.2570 0 0 0 0
   1529      2.12      0.56      2.04     -0.44  1.0400      4.40 1      4.00      1.20      1.20      4.00     -0.44      2.04     -0.44      2.04 0 0 0 0   0.0400 0 0 0 0
   1530    108.35    -40.03     59.21    -40.03  1.0100    305.80 1    278.00     83.40     83.40    278.00    -40.03     59.21    -40.03     59.21 0 0 0 0   2.7800 0 0 0 0
   1531     29.23    -10.80     15.97    -10.80  1.0100     82.50 1     75.00     22.50     22.50     75.00    -10.80     15.97    -10.80     15.97 0 0 0 0   0.7500 0 0 0 0
   1532      2.50      1.08      1.08     -0.14  1.0400      3.08 1      2.80      0.84      0.84      2.80     -0.14      1.08     -0.14      1.08 0 0 0 0   0.0280 0 0 0 0
   1533      0.78      0.36      0.58     -0.07  1.0400      1.65 1      1.50      0.45      0.45      1.50     -0.07      0.58     -0.07      0.58 0 0 0 0   0.0150 0 0 0 0
   1534      1.24      0.58      0.92     -0.12  1.0400      2.64 1      2.40      0.72      0.72      2.40     -0.12      0.92     -0.12      0.92 0 0 0 0   0.0240 0 0 0 0
   1535      1.24      0.58      0.92     -0.12  1.0400      2.64 1      2.40      0.72      0.72      2.40     -0.12      0.92     -0.12      0.92 0 0 0 0   0.0240 0 0 0 0
   1536      3.10      1.49      2.30     -0.29  1.0400      6.60 1      6.00      1.80      1.80      6.00     -0.29      2.30     -0.29      2.30 0 0 0 0   0.0600 0 0 0 0
   1537      1.45      1.08      1.08     -0.14  1.0400      3.08 1      2.80      0.84      0.84      2.80     -0.14      1.08     -0.14      1.08 0 0 0 0   0.0280 0 0 0 0
   1538      1.86      1.38      1.38     -0.18  1.0400      3.96 1      3.60      1.08      1.08      3.60     -0.18      1.38     -0.18      1.38 0 0 0 0   0.0360 0 0 0 0
   1539      1.24      0.92      0.92     -0.12  1.0400      2.64 1      2.40      0.72      0.72      2.40     -0.12      0.92     -0.12      0.92 0 0 0 0   0.0240 0 0 0 0
   1540      1.24      0.92      0.92     -0.12  1.0400      2.64 1      2.40      0.72      0.72      2.40     -0.12      0.92     -0.12      0.92 0 0 0 0   0.0240 0 0 0 0
   1541     22.29      1.96     25.34     -3.23  1.0400     72.60 1     66.00     19.80     19.80     66.00     -3.23     25.34     -3.23     25.34 0 0 0 0   0.6600 0 0 0 0
   1542     11.52      2.61     12.10     -1.54  1.0400     34.65 1     31.50      9.45      9.45     31.50     -1.54     12.10     -1.54     12.10 0 0 0 0   0.3150 0 0 0 0
   1543      9.31      6.90      6.91     -0.88  1.0400     19.80 1     18.00      5.40      5.40     18.00     -0.88      6.91     -0.88      6.91 0 0 0 0   0.1800 0 0 0 0
   1544     55.83     41.40     41.47     -5.29  1.0400    118.80 1    108.00     32.40     32.40    108.00     -5.29     41.47     -5.29     41.47 0 0 0 0   1.0800 0 0 0 0
   1545     18.54     15.81     21.08     -2.69  1.0400     60.39 1     54.90     16.47     16.47     54.90     -2.69     21.08     -2.69     21.08 0 0 0 0   0.5490 0 0 0 0
   1546      5.07      4.32      5.76     -0.74  1.0400     16.50 1     15.00      4.50      4.50     15.00     -0.74      5.76     -0.74      5.76 0 0 0 0   0.1500 0 0 0 0
   1547     31.02     23.04     23.04     -2.94  1.0400     66.00 1     60.00     18.00     18.00     60.00     -2.94     23.04     -2.94     23.04 0 0 0 0   0.6000 0 0 0 0
   1548     22.75     16.90     16.90     -2.16  1.0400     48.40 1     44.00     13.20     13.20     44.00     -2.16     16.90     -2.16     16.90 0 0 0 0   0.4400 0 0 0 0
   1549    330.35     44.12    297.77    -77.96  1.0400    702.90 1    639.00    191.70    191.70    639.00    -77.96    297.77    -77.96    297.77 0 0 0 0   6.3900 0 0 0 0
   1550    307.60     42.51    333.20    -38.08  1.0400    654.50 1    595.00    178.50    178.50    595.00    -38.08    333.20    -38.08    333.20 0 0 0 0   5.9500 0 0 0 0
   1551    125.11      7.43    135.52    -15.49  1.0400    266.20 1    242.00     72.60     72.60    242.00    -15.49    135.52    -15.49    135.52 0 0 0 0   2.4200 0 0 0 0
   1552     32.16     -6.02     17.57    -11.88  1.0100     90.75 1     82.50     24.75     24.75     82.50    -11.88     17.57    -11.88     17.57 0 0 0 0   0.8250 0 0 0 0
   1553     62.56    -11.71     34.19    -23.11  1.0100    176.55 1    160.50     48.15     48.15    160.50    -23.11     34.19    -23.11     34.19 0 0 0 0   1.6050 0 0 0 0
   1554    449.32      3.64    645.57    -73.78  1.0100   1268.08 1   1152.80    345.84    345.84   1152.80    -73.78    645.57    -73.78    645.57 0 0 0 0  11.5280 0 0 0 0
   1555    223.34      1.81    320.88    -36.67  1.0100    630.30 1    573.00    171.90    171.90    573.00    -36.67    320.88    -36.67    320.88 0 0 0 0   5.7300 0 0 0 0
   1556     31.96    -11.81     17.47    -11.81  1.0100     90.20 1     82.00     24.60     24.60     82.00    -11.81     17.47    -11.81     17.47 0 0 0 0   0.8200 0 0 0 0
   1557     30.40    -11.23     16.61    -11.23  1.0100     85.80 1     78.00     23.40     23.40     78.00    -11.23     16.61    -11.23     16.61 0 0 0 0   0.7800 0 0 0 0
   1558     58.46    -21.60     31.95    -21.60  1.0100    165.00 1    150.00     45.00     45.00    150.00    -21.60     31.95    -21.60     31.95 0 0 0 0   1.5000 0 0 0 0
   1559     57.49    -21.24     31.42    -21.24  1.0100    162.25 1    147.50     44.25     44.25    147.50    -21.24     31.42    -21.24     31.42 0 0 0 0   1.4750 0 0 0 0
   1560     73.72      4.30     42.94    -29.03  1.0400    221.76 1    201.60     60.48     60.48    201.60    -29.03     42.94    -29.03     42.94 0 0 0 0   2.0160 0 0 0 0
   1561     73.50      4.29     42.81    -28.94  1.0400    221.10 1    201.00     60.30     60.30    201.00    -28.94     42.81    -28.94     42.81 0 0 0 0   2.0100 0 0 0 0
   1562    103.55      6.04     60.32    -40.78  1.0400    311.52 1    283.20     84.96     84.96    283.20    -40.78     60.32    -40.78     60.32 0 0 0 0   2.8320 0 0 0 0
   1563    107.09     25.14     25.56    -17.28  1.0400    132.00 1    120.00     36.00     36.00    120.00    -17.28     25.56    -17.28     25.56 0 0 0 0   1.2000 0 0 0 0
   1564    133.86     31.42     31.95    -21.60  1.0400    165.00 1    150.00     45.00     45.00    150.00    -21.60     31.95    -21.60     31.95 0 0 0 0   1.5000 0 0 0 0
   1565     68.74     15.16     40.04    -27.07  1.0400    206.80 1    188.00     56.40     56.40    188.00    -27.07     40.04    -27.07     40.04 0 0 0 0   1.8800 0 0 0 0
   1566      9.10      0.00      0.00      0.00  1.0400     27.39 1     24.90      7.47      7.47     24.90      0.00      0.00      0.00      0.00 0 0 0 0   0.2490 0 0 0 0
   1567     54.03     -2.45     34.08    -23.04  1.0400    176.00 1    160.00     48.00     48.00    160.00    -23.04     34.08    -23.04     34.08 0 0 0 0   1.6000 0 0 0 0
   1568     28.37     -1.29     17.89    -12.10  1.0400     92.40 1     84.00     25.20     25.20     84.00    -12.10     17.89    -12.10     17.89 0 0 0 0   0.8400 0 0 0 0
   1569      0.78      0.47      0.58     -0.07  1.0400      1.65 1      1.50      0.45      0.45      1.50     -0.07      0.58     -0.07      0.58 0 0 0 0   0.0150 0 0 0 0
   1570    101.49     32.32    107.02    -12.23  1.0400    210.21 1    191.10     57.33     57.33    191.10    -12.23    107.02    -12.23    107.02 0 0 0 0   1.9110 0 0 0 0
   1571    457.27    145.60    482.16    -55.10  1.0400    947.10 1    861.00    258.30    258.30    861.00    -55.10    482.16    -55.10    482.16 0 0 0 0   8.6100 0 0 0 0
   1572    238.99     76.10    252.00    -28.80  1.0400    495.00 1    450.00    135.00    135.00    450.00    -28.80    252.00    -28.80    252.00 0 0 0 0   4.5000 0 0 0 0
   1573     29.74      0.00      0.00      0.00  1.0400     61.60 1     56.00     16.80     16.80     56.00      0.00      0.00      0.00      0.00 0 0 0 0   0.5600 0 0 0 0
   1574     97.85     15.40    124.70    -32.65  1.0400    294.36 1    267.60     80.28     80.28    267.60    -32.65    124.70    -32.65    124.70 0 0 0 0   2.6760 0 0 0 0
   1575     40.78      0.00      0.00      0.00  1.0400    125.40 1    114.00     34.20     34.20    114.00      0.00      0.00      0.00      0.00 0 0 0 0   1.1400 0 0 0 0
   1576    162.24     55.88    211.33    -55.33  1.0400    498.85 1    453.50    136.05    136.05    453.50    -55.33    211.33    -55.33    211.33 0 0 0 0   4.5350 0 0 0 0
   1577     50.66     -0.37     31.95    -21.60  1.0400    165.00 1    150.00     45.00     45.00    150.00    -21.60     31.95    -21.60     31.95 0 0 0 0   1.5000 0 0 0 0
   1578     34.18     -0.25     21.56    -14.57  1.0400    111.32 1    101.20     30.36     30.36    101.20    -14.57     21.56    -14.57     21.56 0 0 0 0   1.0120 0 0 0 0
   1579     12.66     -0.09      7.99     -5.40  1.0400     41.25 1     37.50     11.25     11.25     37.50     -5.40      7.99     -5.40      7.99 0 0 0 0   0.3750 0 0 0 0
   1580     30.90     -0.22     19.49    -13.18  1.0400    100.65 1     91.50     27.45     27.45     91.50    -13.18     19.49    -13.18     19.49 0 0 0 0   0.9150 0 0 0 0
   1581     45.59     -0.33     28.76    -19.44  1.0400    148.50 1    135.00     40.50     40.50    135.00    -19.44     28.76    -19.44     28.76 0 0 0 0   1.3500 0 0 0 0
   1582     27.19     -0.20     17.15    -11.59  1.0400     88.55 1     80.50     24.15     24.15     80.50    -11.59     17.15    -11.59     17.15 0 0 0 0   0.8050 0 0 0 0
   1583     81.39     -0.59     51.33    -34.70  1.0400    265.10 1    241.00     72.30     72.30    241.00    -34.70     51.33    -34.70     51.33 0 0 0 0   2.4100 0 0 0 0
   1584     37.30     12.61     16.05     -2.05  1.0400     45.98 1     41.80     12.54     12.54     41.80     -2.05     16.05     -2.05     16.05 0 0 0 0   0.4180 0 0 0 0
   1585     61.43      9.71     94.08    -10.75  1.0400    184.80 1    168.00     50.40     50.40    168.00    -10.75     94.08    -10.75     94.08 0 0 0 0   1.6800 0 0 0 0
   1586      2.78      0.00      0.00      0.00  1.0400      8.36 1      7.60      2.28      2.28      7.60      0.00      0.00      0.00      0.00 0 0 0 0   0.0760 0 0 0 0
   1587     14.19      0.00      0.00      0.00  1.0400     42.68 1     38.80     11.64     11.64     38.80      0.00      0.00      0.00      0.00 0 0 0 0   0.3880 0 0 0 0
   1588     40.73      1.35     25.69    -17.37  1.0400    132.66 1    120.60     36.18     36.18    120.60    -17.37     25.69    -17.37     25.69 0 0 0 0   1.2060 0 0 0 0
   1589     38.50      1.28     24.28    -16.42  1.0400    125.40 1    114.00     34.20     34.20    114.00    -16.42     24.28    -16.42     24.28 0 0 0 0   1.1400 0 0 0 0
   1590     57.48      1.91     36.25    -24.51  1.0400    187.22 1    170.20     51.06     51.06    170.20    -24.51     36.25    -24.51     36.25 0 0 0 0   1.7020 0 0 0 0
   1591    248.38      8.24    156.66   -105.91  1.0400    809.05 1    735.50    220.65    220.65    735.50   -105.91    156.66   -105.91    156.66 0 0 0 0   7.3550 0 0 0 0
   1592     78.52      2.60     49.52    -33.48  1.0400    255.75 1    232.50     69.75     69.75    232.50    -33.48     49.52    -33.48     49.52 0 0 0 0   2.3250 0 0 0 0
   1593   1438.51     50.20    996.76   -222.11  1.0400   2979.46 1   2708.60    812.58    812.58   2708.60   -222.11    996.76   -222.11    996.76 0 0 0 0  27.0860 0 0 0 0
   1594     33.51      8.69     29.40     -7.70  1.0400     69.41 1     63.10     18.93     18.93     63.10     -7.70     29.40     -7.70     29.40 0 0 0 0   0.6310 0 0 0 0
   1595     24.95      3.11     26.88     -3.43  1.0100     77.00 1     70.00     21.00     21.00     70.00     -3.43     26.88     -3.43     26.88 0 0 0 0   0.7000 0 0 0 0
   1596     50.52     11.20     31.86    -21.54  1.0400    164.56 1    149.60     44.88     44.88    149.60    -21.54     31.86    -21.54     31.86 0 0 0 0   1.4960 0 0 0 0
   1597    223.73     49.61    141.11    -95.40  1.0400    728.75 1    662.50    198.75    198.75    662.50    -95.40    141.11    -95.40    141.11 0 0 0 0   6.6250 0 0 0 0
   1598     54.85     24.37     31.95    -21.60  1.0400    165.00 1    150.00     45.00     45.00    150.00    -21.60     31.95    -21.60     31.95 0 0 0 0   1.5000 0 0 0 0
   1599     33.64     14.95     19.60    -13.25  1.0400    101.20 1     92.00     27.60     27.60     92.00    -13.25     19.60    -13.25     19.60 0 0 0 0   0.9200 0 0 0 0
   1600    319.85    130.76    346.47    -39.60  1.0400    680.57 1    618.70    185.61    185.61    618.70    -39.60    346.47    -39.60    346.47 0 0 0 0   6.1870 0 0 0 0
   1601      2.18     -0.17      3.14     -0.36  1.0100      6.16 1      5.60      1.68      1.68      5.60     -0.36      3.14     -0.36      3.14 0 0 0 0   0.0560 0 0 0 0
   1602     44.07     -0.27     27.80    -18.79  1.0400    143.55 1    130.50     39.15     39.15    130.50    -18.79     27.80    -18.79     27.80 0 0 0 0   1.3050 0 0 0 0
   1603     40.52     -0.25     25.56    -17.28  1.0400    132.00 1    120.00     36.00     36.00    120.00    -17.28     25.56    -17.28     25.56 0 0 0 0   1.2000 0 0 0 0
   1604     21.28     -0.13     13.42     -9.07  1.0400     69.30 1     63.00     18.90     18.90     63.00     -9.07     13.42     -9.07     13.42 0 0 0 0   0.6300 0 0 0 0
   1605     84.09     -0.52     53.04    -35.86  1.0400    273.90 1    249.00     74.70     74.70    249.00    -35.86     53.04    -35.86     53.04 0 0 0 0   2.4900 0 0 0 0
   1606     46.77     -3.35     25.56    -17.28  1.0100    132.00 1    120.00     36.00     36.00    120.00    -17.28     25.56    -17.28     25.56 0 0 0 0   1.2000 0 0 0 0
   1607     53.47    -17.83     31.95    -21.60  1.0100    165.00 1    150.00     45.00     45.00    150.00    -21.60     31.95    -21.60     31.95 0 0 0 0   1.5000 0 0 0 0
   1608     57.24      1.04     36.10    -24.41  1.0400    186.45 1    169.50     50.85     50.85    169.50    -24.41     36.10    -24.41     36.10 0 0 0 0   1.6950 0 0 0 0
   1609    133.86     31.95     31.95    -21.60  1.0400    165.00 1    150.00     45.00     45.00    150.00    -21.60     31.95    -21.60     31.95 0 0 0 0   1.5000 0 0 0 0
   1610    102.87    -25.19     61.47    -41.56  1.0100    317.46 1    288.60     86.58     86.58    288.60    -41.56     61.47    -41.56     61.47 0 0 0 0   2.8860 0 0 0 0
   1611      3.51      0.98      3.69     -0.47  1.0400     10.56 1      9.60      2.88      2.88      9.60     -0.47      3.69     -0.47      3.69 0 0 0 0   0.0960 0 0 0 0
   1612     89.11     16.23    140.00    -16.00  1.0100    275.00 1    250.00     75.00     75.00    250.00    -16.00    140.00    -16.00    140.00 0 0 0 0   2.5000 0 0 0 0
   1613     67.54      5.93     42.60    -28.80  1.0400    220.00 1    200.00     60.00     60.00    200.00    -28.80     42.60    -28.80     42.60 0 0 0 0   2.0000 0 0 0 0
   1614     55.92      4.91     35.27    -23.85  1.0400    182.16 1    165.60     49.68     49.68    165.60    -23.85     35.27    -23.85     35.27 0 0 0 0   1.6560 0 0 0 0
   1615     67.54      5.93     42.60    -28.80  1.0400    220.00 1    200.00     60.00     60.00    200.00    -28.80     42.60    -28.80     42.60 0 0 0 0   2.0000 0 0 0 0
   1616     21.31     -8.61     12.74     -8.61  1.0100     65.78 1     59.80     17.94     17.94     59.80     -8.61     12.74     -8.61     12.74 0 0 0 0   0.5980 0 0 0 0
   1617     53.55     10.79     12.78     -8.64  1.0400     66.00 1     60.00     18.00     18.00     60.00     -8.64     12.78     -8.64     12.78 0 0 0 0   0.6000 0 0 0 0
   1618    200.79     47.57     47.93    -32.40  1.0400    247.50 1    225.00     67.50     67.50    225.00    -32.40     47.93    -32.40     47.93 0 0 0 0   2.2500 0 0 0 0
   1619    133.86     31.71     31.95    -21.60  1.0400    165.00 1    150.00     45.00     45.00    150.00    -21.60     31.95    -21.60     31.95 0 0 0 0   1.5000 0 0 0 0
   1620     60.33     14.29     14.40     -9.73  1.0400     74.36 1     67.60     20.28     20.28     67.60     -9.73     14.40     -9.73     14.40 0 0 0 0   0.6760 0 0 0 0
   1621    427.73   -100.64    511.39   -133.88  1.0100   1207.14 1   1097.40    329.22    329.22   1097.40   -133.88    511.39   -133.88    511.39 0 0 0 0  10.9740 0 0 0 0
   1622     87.04     32.17    113.38    -29.68  1.0400    267.63 1    243.30     72.99     72.99    243.30    -29.68    113.38    -29.68    113.38 0 0 0 0   2.4330 0 0 0 0
   1623      0.78     -0.22      1.02     -0.22  1.0100      2.20 1      2.00      0.60      0.60      2.00     -0.22      1.02     -0.22      1.02 0 0 0 0   0.0200 0 0 0 0
   1624     15.74      0.00      0.00      0.00  1.0400     48.40 1     44.00     13.20     13.20     44.00      0.00      0.00      0.00      0.00 0 0 0 0   0.4400 0 0 0 0
   1625     48.41    -17.88     26.45    -17.88  1.0100    136.62 1    124.20     37.26     37.26    124.20    -17.88     26.45    -17.88     26.45 0 0 0 0   1.2420 0 0 0 0
   1626     35.08    -12.96     19.17    -12.96  1.0100     99.00 1     90.00     27.00     27.00     90.00    -12.96     19.17    -12.96     19.17 0 0 0 0   0.9000 0 0 0 0
   1627     45.02    -16.63     24.60    -16.63  1.0100    127.05 1    115.50     34.65     34.65    115.50    -16.63     24.60    -16.63     24.60 0 0 0 0   1.1550 0 0 0 0
   1628     77.76    -28.73     42.49    -28.73  1.0100    219.45 1    199.50     59.85     59.85    199.50    -28.73     42.49    -28.73     42.49 0 0 0 0   1.9950 0 0 0 0
   1629     42.72     -0.64     26.94    -18.22  1.0400    139.15 1    126.50     37.95     37.95    126.50    -18.22     26.94    -18.22     26.94 0 0 0 0   1.2650 0 0 0 0
   1630     70.58     -1.06     44.52    -30.10  1.0400    229.90 1    209.00     62.70     62.70    209.00    -30.10     44.52    -30.10     44.52 0 0 0 0   2.0900 0 0 0 0
   1631     50.66     -0.76     31.95    -21.60  1.0400    165.00 1    150.00     45.00     45.00    150.00    -21.60     31.95    -21.60     31.95 0 0 0 0   1.5000 0 0 0 0
   1632     66.53     -1.00     41.96    -28.37  1.0400    216.70 1    197.00     59.10     59.10    197.00    -28.37     41.96    -28.37     41.96 0 0 0 0   1.9700 0 0 0 0
   1633     65.82      4.06     38.34    -25.92  1.0400    198.00 1    180.00     54.00     54.00    180.00    -25.92     38.34    -25.92     38.34 0 0 0 0   1.8000 0 0 0 0
   1634      3.29      0.20      1.92     -1.30  1.0400      9.90 1      9.00      2.70      2.70      9.00     -1.30      1.92     -1.30      1.92 0 0 0 0   0.0900 0 0 0 0
   1635     73.17      4.51     42.62    -28.81  1.0400    220.11 1    200.10     60.03     60.03    200.10    -28.81     42.62    -28.81     42.62 0 0 0 0   2.0010 0 0 0 0
   1636     74.23     25.00     43.24    -29.23  1.0400    223.30 1    203.00     60.90     60.90    203.00    -29.23     43.24    -29.23     43.24 0 0 0 0   2.0300 0 0 0 0
   1637     73.13     24.63     42.60    -28.80  1.0400    220.00 1    200.00     60.00     60.00    200.00    -28.80     42.60    -28.80     42.60 0 0 0 0   2.0000 0 0 0 0
   1638     73.72     24.82     42.94    -29.03  1.0400    221.76 1    201.60     60.48     60.48    201.60    -29.03     42.94    -29.03     42.94 0 0 0 0   2.0160 0 0 0 0
   1639     33.70     11.28     21.26    -14.37  1.0400    109.78 1     99.80     29.94     29.94     99.80    -14.37     21.26    -14.37     21.26 0 0 0 0   0.9980 0 0 0 0
   1640     71.50    -16.28     42.73    -28.89  1.0100    220.66 1    200.60     60.18     60.18    200.60    -28.89     42.73    -28.89     42.73 0 0 0 0   2.0060 0 0 0 0
   1641     70.16    -25.92     38.34    -25.92  1.0100    198.00 1    180.00     54.00     54.00    180.00    -25.92     38.34    -25.92     38.34 0 0 0 0   1.8000 0 0 0 0
   1642     82.24    -30.38     44.94    -30.38  1.0100    232.10 1    211.00     63.30     63.30    211.00    -30.38     44.94    -30.38     44.94 0 0 0 0   2.1100 0 0 0 0
   1643     73.47      0.00      0.00      0.00  1.0100    207.35 1    188.50     56.55     56.55    188.50      0.00      0.00      0.00      0.00 0 0 0 0   1.8850 0 0 0 0
   1644     27.67     18.93     26.52     -5.78  1.0400     57.31 1     52.10     15.63     15.63     52.10     -5.78     26.52     -5.78     26.52 0 0 0 0   0.5210 0 0 0 0
   1645     50.66     21.99     31.95    -21.60  1.0400    165.00 1    150.00     45.00     45.00    150.00    -21.60     31.95    -21.60     31.95 0 0 0 0   1.5000 0 0 0 0
   1646     77.70    -20.98     46.43    -31.39  1.0100    239.80 1    218.00     65.40     65.40    218.00    -31.39     46.43    -31.39     46.43 0 0 0 0   2.1800 0 0 0 0
   1647     64.76    -17.49     38.70    -26.16  1.0100    199.87 1    181.70     54.51     54.51    181.70    -26.16     38.70    -26.16     38.70 0 0 0 0   1.8170 0 0 0 0
   1648      7.19      0.00      0.00      0.00  1.0400     15.29 1     13.90      4.17      4.17     13.90      0.00      0.00      0.00      0.00 0 0 0 0   0.1390 0 0 0 0
   1649      5.17      0.00      0.00      0.00  1.0400     11.00 1     10.00      3.00      3.00     10.00      0.00      0.00      0.00      0.00 0 0 0 0   0.1000 0 0 0 0
   1650      5.17      0.00      0.00      0.00  1.0400     11.00 1     10.00      3.00      3.00     10.00      0.00      0.00      0.00      0.00 0 0 0 0   0.1000 0 0 0 0
   1651     21.04      0.00      0.00      0.00  1.0400     44.77 1     40.70     12.21     12.21     40.70      0.00      0.00      0.00      0.00 0 0 0 0   0.4070 0 0 0 0
   1652      2.27      0.00      0.00      0.00  1.0400      4.84 1      4.40      1.32      1.32      4.40      0.00      0.00      0.00      0.00 0 0 0 0   0.0440 0 0 0 0
   1653      2.84      0.00      0.00      0.00  1.0400      6.05 1      5.50      1.65      1.65      5.50      0.00      0.00      0.00      0.00 0 0 0 0   0.0550 0 0 0 0
   1654     13.37      0.00      0.00      0.00  1.0400     43.56 1     39.60     11.88     11.88     39.60      0.00      0.00      0.00      0.00 0 0 0 0   0.3960 0 0 0 0
   1655     15.51      0.00      0.00      0.00  1.0400     33.00 1     30.00      9.00      9.00     30.00      0.00      0.00      0.00      0.00 0 0 0 0   0.3000 0 0 0 0
   1656    341.98     33.80    308.26    -80.70  1.0400    727.65 1    661.50    198.45    198.45    661.50    -80.70    308.26    -80.70    308.26 0 0 0 0   6.6150 0 0 0 0
   1657     71.29    -16.67     42.60    -28.80  1.0100    220.00 1    200.00     60.00     60.00    200.00    -28.80     42.60    -28.80     42.60 0 0 0 0   2.0000 0 0 0 0
   1658     57.39    -20.44     34.29    -23.18  1.0100    177.10 1    161.00     48.30     48.30    161.00    -23.18     34.29    -23.18     34.29 0 0 0 0   1.6100 0 0 0 0
   1659      5.48      0.00      0.00      0.00  1.0400     11.66 1     10.60      3.18      3.18     10.60      0.00      0.00      0.00      0.00 0 0 0 0   0.1060 0 0 0 0
   1660      0.72      0.00      0.00      0.00  1.0400      1.54 1      1.40      0.42      0.42      1.40      0.00      0.00      0.00      0.00 0 0 0 0   0.0140 0 0 0 0
   1661     10.13      0.35      6.39     -4.32  1.0400     33.00 1     30.00      9.00      9.00     30.00     -4.32      6.39     -4.32      6.39 0 0 0 0   0.3000 0 0 0 0
   1662     40.10     -5.43     23.96    -16.20  1.0100    123.75 1    112.50     33.75     33.75    112.50    -16.20     23.96    -16.20     23.96 0 0 0 0   1.1250 0 0 0 0
   1663     48.26     -0.23     28.84    -19.50  1.0100    148.94 1    135.40     40.62     40.62    135.40    -19.50     28.84    -19.50     28.84 0 0 0 0   1.3540 0 0 0 0
   1664      3.90      0.00      0.00      0.00  1.0100     11.00 1     10.00      3.00      3.00     10.00      0.00      0.00      0.00      0.00 0 0 0 0   0.1000 0 0 0 0
   1665    418.96      4.07    547.74   -143.40  1.0100   1292.94 1   1175.40    352.62    352.62   1175.40   -143.40    547.74   -143.40    547.74 0 0 0 0  11.7540 0 0 0 0
   1666    827.72    389.72    432.22   -113.15  1.0400   1020.25 1    927.50    278.25    278.25    927.50   -113.15    432.22   -113.15    432.22 0 0 0 0   9.2750 0 0 0 0
   1667      2.86      1.47      1.63     -0.36  1.0400      3.52 1      3.20      0.96      0.96      3.20     -0.36      1.63     -0.36      1.63 0 0 0 0   0.0320 0 0 0 0
   1668      1.43      0.73      0.81     -0.18  1.0400      1.76 1      1.60      0.48      0.48      1.60     -0.18      0.81     -0.18      0.81 0 0 0 0   0.0160 0 0 0 0
   1669      9.64      0.00      0.00      0.00  1.0400     11.88 1     10.80      3.24      3.24     10.80      0.00      0.00      0.00      0.00 0 0 0 0   0.1080 0 0 0 0
   1670      3.12      1.60      1.78     -0.39  1.0400      3.85 1      3.50      1.05      1.05      3.50     -0.39      1.78     -0.39      1.78 0 0 0 0   0.0350 0 0 0 0
   1671    319.13    167.09    200.26    -22.89  1.0400    393.36 1    357.60    107.28    107.28    357.60    -22.89    200.26    -22.89    200.26 0 0 0 0   3.5760 0 0 0 0
   1672      3.75      2.06      2.14     -0.47  1.0400      4.62 1      4.20      1.26      1.26      4.20     -0.47      2.14     -0.47      2.14 0 0 0 0   0.0420 0 0 0 0
   1673      5.71      3.14      3.26     -0.71  1.0400      7.04 1      6.40      1.92      1.92      6.40     -0.71      3.26     -0.71      3.26 0 0 0 0   0.0640 0 0 0 0
   1674    373.03    209.18    234.08    -26.75  1.0400    459.80 1    418.00    125.40    125.40    418.00    -26.75    234.08    -26.75    234.08 0 0 0 0   4.1800 0 0 0 0
   1675    760.52    226.71    397.13   -103.97  1.0400    937.42 1    852.20    255.66    255.66    852.20   -103.97    397.13   -103.97    397.13 0 0 0 0   8.5220 0 0 0 0
   1676   1651.69    275.04   1036.45   -118.45  1.0400   2035.88 1   1850.80    555.24    555.24   1850.80   -118.45   1036.45   -118.45   1036.45 0 0 0 0  18.5080 0 0 0 0
   1677    396.50     44.76    620.65    -70.93  1.0400   1219.13 1   1108.30    332.49    332.49   1108.30    -70.93    620.65    -70.93    620.65 0 0 0 0  11.0830 0 0 0 0
   1678    287.35     70.59    449.79    -51.40  1.0400    883.52 1    803.20    240.96    240.96    803.20    -51.40    449.79    -51.40    449.79 0 0 0 0   8.0320 0 0 0 0
   1679     39.32      9.66     55.94    -12.20  1.0400    120.89 1    109.90     32.97     32.97    109.90    -12.20     55.94    -12.20     55.94 0 0 0 0   1.0990 0 0 0 0
   1680    336.15     40.70    526.18    -60.13  1.0400   1033.56 1    939.60    281.88    281.88    939.60    -60.13    526.18    -60.13    526.18 0 0 0 0   9.3960 0 0 0 0
   1681    708.35     58.88    922.68   -241.56  1.0400   2178.00 1   1980.00    594.00    594.00   1980.00   -241.56    922.68   -241.56    922.68 0 0 0 0  19.8000 0 0 0 0
   1682    851.31     61.24   1108.89   -290.31  1.0400   2617.56 1   2379.60    713.88    713.88   2379.60   -290.31   1108.89   -290.31   1108.89 0 0 0 0  23.7960 0 0 0 0
   1683    255.22      0.00      0.00      0.00  1.0400    784.74 1    713.40    214.02    214.02    713.40      0.00      0.00      0.00      0.00 0 0 0 0   7.1340 0 0 0 0
   1684    203.92     26.07    319.20    -36.48  1.0400    627.00 1    570.00    171.00    171.00    570.00    -36.48    319.20    -36.48    319.20 0 0 0 0   5.7000 0 0 0 0
   1685   1059.12    388.50    553.05   -144.79  1.0400   1305.48 1   1186.80    356.04    356.04   1186.80   -144.79    553.05   -144.79    553.05 0 0 0 0  11.8680 0 0 0 0
   1686    924.55    264.70    580.16    -66.30  1.0400   1139.60 1   1036.00    310.80    310.80   1036.00    -66.30    580.16    -66.30    580.16 0 0 0 0  10.3600 0 0 0 0
   1687   1173.35    417.22    612.70   -160.41  1.0400   1446.28 1   1314.80    394.44    394.44   1314.80   -160.41    612.70   -160.41    612.70 0 0 0 0  13.1480 0 0 0 0
   1688      5.09      0.00      0.00      0.00  1.0400      6.27 1      5.70      1.71      1.71      5.70      0.00      0.00      0.00      0.00 0 0 0 0   0.0570 0 0 0 0
   1689    665.75    312.30    417.76    -47.74  1.0400    820.60 1    746.00    223.80    223.80    746.00    -47.74    417.76    -47.74    417.76 0 0 0 0   7.4600 0 0 0 0
   1690      1.71     -0.09      2.44     -0.53  1.0100      5.28 1      4.80      1.44      1.44      4.80     -0.53      2.44     -0.53      2.44 0 0 0 0   0.0480 0 0 0 0
   1691      4.42     -0.23      6.31     -1.38  1.0100     13.64 1     12.40      3.72      3.72     12.40     -1.38      6.31     -1.38      6.31 0 0 0 0   0.1240 0 0 0 0
   1692    100.73     -5.30    158.26    -18.09  1.0100    310.86 1    282.60     84.78     84.78    282.60    -18.09    158.26    -18.09    158.26 0 0 0 0   2.8260 0 0 0 0
   1693    618.06    -32.54    971.04   -110.98  1.0100   1907.40 1   1734.00    520.20    520.20   1734.00   -110.98    971.04   -110.98    971.04 0 0 0 0  17.3400 0 0 0 0
   1694    112.89     17.66     58.95    -15.43  1.0400    139.15 1    126.50     37.95     37.95    126.50    -15.43     58.95    -15.43     58.95 0 0 0 0   1.2650 0 0 0 0
   1695   1142.30    216.23    716.80    -81.92  1.0400   1408.00 1   1280.00    384.00    384.00   1280.00    -81.92    716.80    -81.92    716.80 0 0 0 0  12.8000 0 0 0 0
   1696      2.86      0.47      1.63     -0.36  1.0400      3.52 1      3.20      0.96      0.96      3.20     -0.36      1.63     -0.36      1.63 0 0 0 0   0.0320 0 0 0 0
   1697    381.69     61.77    199.31    -52.18  1.0400    470.47 1    427.70    128.31    128.31    427.70    -52.18    199.31    -52.18    199.31 0 0 0 0   4.2770 0 0 0 0
   1698      3.10      0.00      0.00      0.00  1.0400      6.60 1      6.00      1.80      1.80      6.00      0.00      0.00      0.00      0.00 0 0 0 0   0.0600 0 0 0 0
   1699     71.39     37.89     44.80     -5.12  1.0400     88.00 1     80.00     24.00     24.00     80.00     -5.12     44.80     -5.12     44.80 0 0 0 0   0.8000 0 0 0 0
...